*SPEF "IEEE 1481.1999"
*DESIGN "MUX_2X1"
*DATE "13:26:06 Sunday September 13, 2020"
*VENDOR "unknown"
*PROGRAM "qrouter"
*VERSION "unknown"
*DESIGN_FLOW "qflow"
*DIVIDER /
*DELIMITER :
*BUS_DELIMITER <>
*T_UNIT 1 PS
*C_UNIT 1 FF
*R_UNIT 1 OHM
*L_UNIT 1 HENRY

*NAME_MAP
*1 sel
*2 NAND2X1_1
*3 OAI21X1_1
*4 inp_1
*5 INVX1_1
*6 _0_
*7 INVX1_1
*8 OAI21X1_1
*9 inp_2
*10 NAND2X1_1
*11 _1_
*12 NAND2X1_1
*13 OAI21X1_1
*14 _2_
*15 OAI21X1_1
*16 BUFX2_1
*17 out
*18 BUFX2_1

*PORTS
*1 I
*4 I
*9 I
*17 O

*D_NET *1 0.00102708
*CONN
*P *1 O
*I *2:B I *L 0.0129035
*I *3:B I *L 0.0182038
*CAP
1 1_1 0.0004632
2 1_2 0.00031668
3 1_3 0.0002472
*RES
1 *1 1_1 2.13333
2 1_1 1_2 1.38667
3 1_2 *2:B 0
4 1_1 1_3 1.06667
5 1_3 *3:B 0
*END
*D_NET *4 0.0005458
*CONN
*P *4 O
*I *5:A I *L 0.00932456
*CAP
1 4_1 0.0005458
*RES
1 *4 4_1 2.13333
2 4_1 *5:A 0
*END
*D_NET *6 0.00029248
*CONN
*I *7:Y O *D INVX1
*I *8:A I *L 0.017346
*CAP
1 6_1 0.00029248
*RES
1 *7:Y 6_1 0.853333
2 6_1 *8:A 0
*END
*D_NET *9 0.00072132
*CONN
*P *9 O
*I *10:A I *L 0.0125
*CAP
1 9_1 0.00072132
*RES
1 *9 9_1 2.88
2 9_1 *10:A 0
*END
*D_NET *11 0.00040216
*CONN
*I *12:Y O *D NAND2X1
*I *13:C I *L 0.0129138
*CAP
1 11_1 0.00040216
*RES
1 *12:Y 11_1 1.17333
2 11_1 *13:C 0
*END
*D_NET *14 0.000707
*CONN
*I *15:Y O *D OAI21X1
*I *16:A I *L 0.00933171
*CAP
1 14_1 0.000707
*RES
1 *15:Y 14_1 2.88
2 14_1 *16:A 0
*END
*D_NET *17 0.000363
*CONN
*I *18:Y O *D BUFX2
*P *17 I
*CAP
1 17_1 0.000363
*RES
1 *18:Y 17_1 1.6
2 17_1 *17 0
*END
